!-Generator IDFEditor 1.50
!-Option SortedOrder

!-NOTE: All comments with '!-' are ignored by the IDFEditor and are generated automatically.
!-      Use '!' comments if they need to be retained when using the IDFEditor.


!-   ===========  ALL OBJECTS IN CLASS: VERSION ===========

Version,
    8.9;                     !- Version Identifier


!-   ===========  ALL OBJECTS IN CLASS: SIMULATIONCONTROL ===========

SimulationControl,
    No,                      !- Do Zone Sizing Calculation
    No,                      !- Do System Sizing Calculation
    No,                      !- Do Plant Sizing Calculation
    No,                      !- Run Simulation for Sizing Periods
    Yes,                     !- Run Simulation for Weather File Run Periods
    No,                      !- Do HVAC Sizing Simulation for Sizing Periods
    1;                       !- Maximum Number of HVAC Sizing Simulation Passes


!-   ===========  ALL OBJECTS IN CLASS: BUILDING ===========

Building,
    office,                  !- Name
    270,                     !- North Axis {deg}
    City,                    !- Terrain
    0.04,                    !- Loads Convergence Tolerance Value
    0.4,                     !- Temperature Convergence Tolerance Value {deltaC}
    FullInteriorAndExteriorWithReflections,  !- Solar Distribution
    25,                      !- Maximum Number of Warmup Days
    6;                       !- Minimum Number of Warmup Days


!-   ===========  ALL OBJECTS IN CLASS: SHADOWCALCULATION ===========

ShadowCalculation,
    AverageOverDaysInFrequency,  !- Calculation Method
    7,                       !- Calculation Frequency
    15000,                   !- Maximum Figures in Shadow Overlap Calculations
    SutherlandHodgman,       !- Polygon Clipping Algorithm
    SimpleSkyDiffuseModeling;!- Sky Diffuse Modeling Algorithm


!-   ===========  ALL OBJECTS IN CLASS: SURFACECONVECTIONALGORITHM:INSIDE ===========

SurfaceConvectionAlgorithm:Inside,
    TARP;                    !- Algorithm


!-   ===========  ALL OBJECTS IN CLASS: SURFACECONVECTIONALGORITHM:OUTSIDE ===========

SurfaceConvectionAlgorithm:Outside,
    DOE-2;                   !- Algorithm


!-   ===========  ALL OBJECTS IN CLASS: HEATBALANCEALGORITHM ===========

HeatBalanceAlgorithm,
    ConductionTransferFunction,  !- Algorithm
    200,                     !- Surface Temperature Upper Limit {C}
    0.1,                     !- Minimum Surface Convection Heat Transfer Coefficient Value {W/m2-K}
    1000;                    !- Maximum Surface Convection Heat Transfer Coefficient Value {W/m2-K}


!-   ===========  ALL OBJECTS IN CLASS: HEATBALANCESETTINGS:CONDUCTIONFINITEDIFFERENCE ===========

HeatBalanceSettings:ConductionFiniteDifference,
    CrankNicholsonSecondOrder,  !- Difference Scheme
    3,                       !- Space Discretization Constant
    1,                       !- Relaxation Factor
    0.002;                   !- Inside Face Surface Temperature Convergence Criteria


!-   ===========  ALL OBJECTS IN CLASS: ZONEAIRHEATBALANCEALGORITHM ===========

ZoneAirHeatBalanceAlgorithm,
    ThirdOrderBackwardDifference;  !- Algorithm


!-   ===========  ALL OBJECTS IN CLASS: TIMESTEP ===========

Timestep,
    12;                      !- Number of Timesteps per Hour


!-   ===========  ALL OBJECTS IN CLASS: CONVERGENCELIMITS ===========

ConvergenceLimits,
    1;                       !- Minimum System Timestep {minutes}


!-   ===========  ALL OBJECTS IN CLASS: SITE:LOCATION ===========

Site:Location,
    Montreal Jean Brebeuf_PQ_CAN Design_Conditions,  !- Name
    45.5,                    !- Latitude {deg}
    -73.62,                  !- Longitude {deg}
    -5,                      !- Time Zone {hr}
    133;                     !- Elevation {m}


!-   ===========  ALL OBJECTS IN CLASS: SIZINGPERIOD:WEATHERFILEDAYS ===========

SizingPeriod:WeatherFileDays,
    summer design day,       !- Name
    7,                       !- Begin Month
    1,                       !- Begin Day of Month
    7,                       !- End Month
    30,                      !- End Day of Month
    Monday,                  !- Day of Week for Start Day
    Yes,                     !- Use Weather File Daylight Saving Period
    Yes;                     !- Use Weather File Rain and Snow Indicators

SizingPeriod:WeatherFileDays,
    winter design day,       !- Name
    1,                       !- Begin Month
    1,                       !- Begin Day of Month
    1,                       !- End Month
    31,                      !- End Day of Month
    Wednesday,               !- Day of Week for Start Day
    Yes,                     !- Use Weather File Daylight Saving Period
    Yes;                     !- Use Weather File Rain and Snow Indicators


!-   ===========  ALL OBJECTS IN CLASS: RUNPERIOD ===========

RunPeriod,
    Run Period 1,            !- Name
    1,                       !- Begin Month
    1,                       !- Begin Day of Month
    12,                      !- End Month
    31,                      !- End Day of Month
    Tuesday,                 !- Day of Week for Start Day
    Yes,                     !- Use Weather File Holidays and Special Days
    Yes,                     !- Use Weather File Daylight Saving Period
    No,                      !- Apply Weekend Holiday Rule
    Yes,                     !- Use Weather File Rain Indicators
    Yes,                     !- Use Weather File Snow Indicators
    1,                       !- Number of Times Runperiod to be Repeated
    Yes,                     !- Increment Day of Week on repeat
    2019;                    !- Start Year


!-   ===========  ALL OBJECTS IN CLASS: RUNPERIODCONTROL:DAYLIGHTSAVINGTIME ===========

RunPeriodControl:DaylightSavingTime,
    3/8,                     !- Start Date
    11/1;                    !- End Date


!-   ===========  ALL OBJECTS IN CLASS: SITE:GROUNDTEMPERATURE:BUILDINGSURFACE ===========

Site:GroundTemperature:BuildingSurface,
    18,                      !- January Ground Temperature {C}
    18,                      !- February Ground Temperature {C}
    18,                      !- March Ground Temperature {C}
    18,                      !- April Ground Temperature {C}
    18,                      !- May Ground Temperature {C}
    18,                      !- June Ground Temperature {C}
    18,                      !- July Ground Temperature {C}
    18,                      !- August Ground Temperature {C}
    18,                      !- September Ground Temperature {C}
    18,                      !- October Ground Temperature {C}
    18,                      !- November Ground Temperature {C}
    18;                      !- December Ground Temperature {C}


!-   ===========  ALL OBJECTS IN CLASS: SCHEDULETYPELIMITS ===========

ScheduleTypeLimits,
    On/off,                  !- Name
    0,                       !- Lower Limit Value
    1,                       !- Upper Limit Value
    Discrete,                !- Numeric Type
    Dimensionless;           !- Unit Type

ScheduleTypeLimits,
    Fraction,                !- Name
    0,                       !- Lower Limit Value
    1,                       !- Upper Limit Value
    Continuous,              !- Numeric Type
    Dimensionless;           !- Unit Type

ScheduleTypeLimits,
    Any number,              !- Name
    ,                        !- Lower Limit Value
    ,                        !- Upper Limit Value
    Continuous,              !- Numeric Type
    Dimensionless;           !- Unit Type

ScheduleTypeLimits,
    ActivityLevel 13,        !- Name
    0,                       !- Lower Limit Value
    ,                        !- Upper Limit Value
    Continuous,              !- Numeric Type
    activitylevel;           !- Unit Type


!-   ===========  ALL OBJECTS IN CLASS: SCHEDULE:DAY:INTERVAL ===========

Schedule:Day:Interval,
    Small Office Infil Quarter On Default Schedule,  !- Name
    Fraction,                !- Schedule Type Limits Name
    No,                      !- Interpolate to Timestep
    06:00,                   !- Time 1 {hh:mm}
    1,                       !- Value Until Time 1
    22:00,                   !- Time 2 {hh:mm}
    0.25,                    !- Value Until Time 2
    24:00,                   !- Time 3 {hh:mm}
    1;                       !- Value Until Time 3

Schedule:Day:Interval,
    Small Office Infil Quarter On Rule 1 Day Schedule,  !- Name
    Fraction,                !- Schedule Type Limits Name
    No,                      !- Interpolate to Timestep
    24:00,                   !- Time 1 {hh:mm}
    1;                       !- Value Until Time 1

Schedule:Day:Interval,
    Small Office Infil Quarter On Rule 2 Day Schedule,  !- Name
    Fraction,                !- Schedule Type Limits Name
    No,                      !- Interpolate to Timestep
    06:00,                   !- Time 1 {hh:mm}
    1,                       !- Value Until Time 1
    18:00,                   !- Time 2 {hh:mm}
    0.25,                    !- Value Until Time 2
    24:00,                   !- Time 3 {hh:mm}
    1;                       !- Value Until Time 3

Schedule:Day:Interval,
    Small Office Infil Quarter On Summer Design Day,  !- Name
    Fraction,                !- Schedule Type Limits Name
    No,                      !- Interpolate to Timestep
    06:00,                   !- Time 1 {hh:mm}
    1,                       !- Value Until Time 1
    22:00,                   !- Time 2 {hh:mm}
    0.25,                    !- Value Until Time 2
    24:00,                   !- Time 3 {hh:mm}
    1;                       !- Value Until Time 3

Schedule:Day:Interval,
    Small Office Infil Quarter On Winter Design Day,  !- Name
    Fraction,                !- Schedule Type Limits Name
    No,                      !- Interpolate to Timestep
    06:00,                   !- Time 1 {hh:mm}
    1,                       !- Value Until Time 1
    18:00,                   !- Time 2 {hh:mm}
    0.25,                    !- Value Until Time 2
    24:00,                   !- Time 3 {hh:mm}
    1;                       !- Value Until Time 3

Schedule:Day:Interval,
    Small Office Bldg Equip Default Schedule,  !- Name
    Fraction,                !- Schedule Type Limits Name
    No,                      !- Interpolate to Timestep
    08:00,                   !- Time 1 {hh:mm}
    0.4,                     !- Value Until Time 1
    12:00,                   !- Time 2 {hh:mm}
    0.9,                     !- Value Until Time 2
    13:00,                   !- Time 3 {hh:mm}
    0.8,                     !- Value Until Time 3
    17:00,                   !- Time 4 {hh:mm}
    0.9,                     !- Value Until Time 4
    18:00,                   !- Time 5 {hh:mm}
    0.5,                     !- Value Until Time 5
    24:00,                   !- Time 6 {hh:mm}
    0.4;                     !- Value Until Time 6

Schedule:Day:Interval,
    Small Office Bldg Equip Rule 1 Day Schedule,  !- Name
    Fraction,                !- Schedule Type Limits Name
    No,                      !- Interpolate to Timestep
    24:00,                   !- Time 1 {hh:mm}
    0.3;                     !- Value Until Time 1

Schedule:Day:Interval,
    Small Office Bldg Equip Rule 2 Day Schedule,  !- Name
    Fraction,                !- Schedule Type Limits Name
    No,                      !- Interpolate to Timestep
    06:00,                   !- Time 1 {hh:mm}
    0.3,                     !- Value Until Time 1
    08:00,                   !- Time 2 {hh:mm}
    0.4,                     !- Value Until Time 2
    12:00,                   !- Time 3 {hh:mm}
    0.5,                     !- Value Until Time 3
    17:00,                   !- Time 4 {hh:mm}
    0.35,                    !- Value Until Time 4
    24:00,                   !- Time 5 {hh:mm}
    0.3;                     !- Value Until Time 5

Schedule:Day:Interval,
    Small Office Bldg Equip Summer Design Day,  !- Name
    Fraction,                !- Schedule Type Limits Name
    No,                      !- Interpolate to Timestep
    24:00,                   !- Time 1 {hh:mm}
    1;                       !- Value Until Time 1

Schedule:Day:Interval,
    Small Office Bldg Equip Winter Design Day,  !- Name
    Fraction,                !- Schedule Type Limits Name
    No,                      !- Interpolate to Timestep
    24:00,                   !- Time 1 {hh:mm}
    0;                       !- Value Until Time 1

Schedule:Day:Interval,
    Medium Office Activity Default Schedule,  !- Name
    ActivityLevel 13,        !- Schedule Type Limits Name
    No,                      !- Interpolate to Timestep
    24:00,                   !- Time 1 {hh:mm}
    120;                     !- Value Until Time 1

Schedule:Day:Interval,
    Medium Office Activity Summer Design Day,  !- Name
    ActivityLevel 13,        !- Schedule Type Limits Name
    No,                      !- Interpolate to Timestep
    24:00,                   !- Time 1 {hh:mm}
    120;                     !- Value Until Time 1

Schedule:Day:Interval,
    Medium Office Activity Winter Design Day,  !- Name
    ActivityLevel 13,        !- Schedule Type Limits Name
    No,                      !- Interpolate to Timestep
    24:00,                   !- Time 1 {hh:mm}
    120;                     !- Value Until Time 1


!-   ===========  ALL OBJECTS IN CLASS: SCHEDULE:WEEK:DAILY ===========

Schedule:Week:Daily,
    Schedule:Week:Daily {67d02dd5-67f4-4a2d-ae12-e57344ac7edd},  !- Name
    Small Office Infil Quarter On Rule 1 Day Schedule,  !- Sunday Schedule:Day Name
    Small Office Infil Quarter On Default Schedule,  !- Monday Schedule:Day Name
    Small Office Infil Quarter On Default Schedule,  !- Tuesday Schedule:Day Name
    Small Office Infil Quarter On Default Schedule,  !- Wednesday Schedule:Day Name
    Small Office Infil Quarter On Default Schedule,  !- Thursday Schedule:Day Name
    Small Office Infil Quarter On Default Schedule,  !- Friday Schedule:Day Name
    Small Office Infil Quarter On Rule 2 Day Schedule,  !- Saturday Schedule:Day Name
    Small Office Infil Quarter On Default Schedule,  !- Holiday Schedule:Day Name
    Small Office Infil Quarter On Summer Design Day,  !- SummerDesignDay Schedule:Day Name
    Small Office Infil Quarter On Winter Design Day,  !- WinterDesignDay Schedule:Day Name
    Small Office Infil Quarter On Default Schedule,  !- CustomDay1 Schedule:Day Name
    Small Office Infil Quarter On Default Schedule;  !- CustomDay2 Schedule:Day Name

Schedule:Week:Daily,
    Schedule:Week:Daily {558d202e-ea46-4941-957c-cedda8e6d9ec},  !- Name
    Small Office Bldg Equip Rule 1 Day Schedule,  !- Sunday Schedule:Day Name
    Small Office Bldg Equip Default Schedule,  !- Monday Schedule:Day Name
    Small Office Bldg Equip Default Schedule,  !- Tuesday Schedule:Day Name
    Small Office Bldg Equip Default Schedule,  !- Wednesday Schedule:Day Name
    Small Office Bldg Equip Default Schedule,  !- Thursday Schedule:Day Name
    Small Office Bldg Equip Default Schedule,  !- Friday Schedule:Day Name
    Small Office Bldg Equip Rule 2 Day Schedule,  !- Saturday Schedule:Day Name
    Small Office Bldg Equip Default Schedule,  !- Holiday Schedule:Day Name
    Small Office Bldg Equip Summer Design Day,  !- SummerDesignDay Schedule:Day Name
    Small Office Bldg Equip Winter Design Day,  !- WinterDesignDay Schedule:Day Name
    Small Office Bldg Equip Default Schedule,  !- CustomDay1 Schedule:Day Name
    Small Office Bldg Equip Default Schedule;  !- CustomDay2 Schedule:Day Name

Schedule:Week:Daily,
    Schedule:Week:Daily {f0e1f6c9-0e47-4752-9d27-d525e3f268f7},  !- Name
    Medium Office Activity Default Schedule,  !- Sunday Schedule:Day Name
    Medium Office Activity Default Schedule,  !- Monday Schedule:Day Name
    Medium Office Activity Default Schedule,  !- Tuesday Schedule:Day Name
    Medium Office Activity Default Schedule,  !- Wednesday Schedule:Day Name
    Medium Office Activity Default Schedule,  !- Thursday Schedule:Day Name
    Medium Office Activity Default Schedule,  !- Friday Schedule:Day Name
    Medium Office Activity Default Schedule,  !- Saturday Schedule:Day Name
    Medium Office Activity Default Schedule,  !- Holiday Schedule:Day Name
    Medium Office Activity Summer Design Day,  !- SummerDesignDay Schedule:Day Name
    Medium Office Activity Winter Design Day,  !- WinterDesignDay Schedule:Day Name
    Medium Office Activity Default Schedule,  !- CustomDay1 Schedule:Day Name
    Medium Office Activity Default Schedule;  !- CustomDay2 Schedule:Day Name


!-   ===========  ALL OBJECTS IN CLASS: SCHEDULE:YEAR ===========

Schedule:Year,
    Small Office Infil Quarter On,  !- Name
    Fraction,                !- Schedule Type Limits Name
    Schedule:Week:Daily {67d02dd5-67f4-4a2d-ae12-e57344ac7edd},  !- Schedule:Week Name 1
    1,                       !- Start Month 1
    1,                       !- Start Day 1
    12,                      !- End Month 1
    31;                      !- End Day 1

Schedule:Year,
    Small Office Bldg Equip, !- Name
    Fraction,                !- Schedule Type Limits Name
    Schedule:Week:Daily {558d202e-ea46-4941-957c-cedda8e6d9ec},  !- Schedule:Week Name 1
    1,                       !- Start Month 1
    1,                       !- Start Day 1
    12,                      !- End Month 1
    31;                      !- End Day 1

Schedule:Year,
    Medium Office Activity,  !- Name
    ActivityLevel 13,        !- Schedule Type Limits Name
    Schedule:Week:Daily {f0e1f6c9-0e47-4752-9d27-d525e3f268f7},  !- Schedule:Week Name 1
    1,                       !- Start Month 1
    1,                       !- Start Day 1
    12,                      !- End Month 1
    31;                      !- End Day 1


!-   ===========  ALL OBJECTS IN CLASS: SCHEDULE:COMPACT ===========

Schedule:Compact,
    Always on,               !- Name
    On/off,                  !- Schedule Type Limits Name
    Through: 12/31,          !- Field 1
    For: AllDays,            !- Field 2
    Until: 24:00,            !- Field 3
    1;                       !- Field 4

Schedule:Compact,
    Always off,              !- Name
    On/off,                  !- Schedule Type Limits Name
    Through: 12/31,          !- Field 1
    For: AllDays,            !- Field 2
    Until: 24:00,            !- Field 3
    0;                       !- Field 4

Schedule:Compact,
    Clothing level,          !- Name
    Any number,              !- Schedule Type Limits Name
    Through: 03/01,          !- Field 1
    For: AllDays,            !- Field 2
    Until: 24:00,            !- Field 3
    1,                       !- Field 4
    Through: 10/01,          !- Field 5
    For: AllDays,            !- Field 6
    Until: 24:00,            !- Field 7
    .5,                      !- Field 8
    Through: 12/31,          !- Field 9
    For: AllDays,            !- Field 10
    Until: 24:00,            !- Field 11
    1;                       !- Field 12

Schedule:Compact,
    Cooling_SCH,             !- Name
    Any number,              !- Schedule Type Limits Name
    Through: 05/01,          !- Field 1
    For: AllDays,            !- Field 2
    Until: 24:00,            !- Field 3
    0,                       !- Field 4
    Through: 10/01,          !- Field 5
    For: AllDays,            !- Field 6
    Until: 24:00,            !- Field 7
    1,                       !- Field 8
    Through: 12/31,          !- Field 9
    For: AllDays,            !- Field 10
    Until: 24:00,            !- Field 11
    0;                       !- Field 12

Schedule:Compact,
    Heating_SCH,             !- Name
    Any number,              !- Schedule Type Limits Name
    Through: 05/01,          !- Field 1
    For: AllDays,            !- Field 2
    Until: 24:00,            !- Field 3
    1,                       !- Field 4
    Through: 10/01,          !- Field 5
    For: AllDays,            !- Field 6
    Until: 24:00,            !- Field 7
    0,                       !- Field 8
    Through: 12/31,          !- Field 9
    For: AllDays,            !- Field 10
    Until: 24:00,            !- Field 11
    1;                       !- Field 12

Schedule:Compact,
    Office spaces_Occupancy, !- Name
    Fraction,                !- Schedule Type Limits Name
    Through: 31 Dec,         !- Field 1
    For: Weekdays,           !- Field 2
    Until: 06:00,            !- Field 3
    0,                       !- Field 4
    Until: 07:00,            !- Field 5
    0.1,                     !- Field 6
    Until: 08:00,            !- Field 7
    .7,                      !- Field 8
    Until: 11:00,            !- Field 9
    .9,                      !- Field 10
    Until: 13:00,            !- Field 11
    0.5,                     !- Field 12
    Until: 16:00,            !- Field 13
    .9,                      !- Field 14
    Until: 17:00,            !- Field 15
    0.7,                     !- Field 16
    Until: 18:00,            !- Field 17
    .3,                      !- Field 18
    Until: 22:00,            !- Field 19
    .1,                      !- Field 20
    Until: 24:00,            !- Field 21
    0,                       !- Field 22
    For: Sunday Holidays,    !- Field 23
    Until: 24:00,            !- Field 24
    0,                       !- Field 25
    For: CustomDay1 CustomDay2,  !- Field 26
    Until: 24:00,            !- Field 27
    0,                       !- Field 28
    For: Saturday,           !- Field 29
    Until: 06:00,            !- Field 30
    0,                       !- Field 31
    Until: 08:00,            !- Field 32
    0,                       !- Field 33
    Until: 14:00,            !- Field 34
    0,                       !- Field 35
    Until: 17:00,            !- Field 36
    0,                       !- Field 37
    Until: 24:00,            !- Field 38
    0,                       !- Field 39
    For: SummerDesignDay,    !- Field 40
    Until: 06:00,            !- Field 41
    0,                       !- Field 42
    Until: 22:00,            !- Field 43
    1,                       !- Field 44
    Until: 24:00,            !- Field 45
    .05,                     !- Field 46
    For: WinterDesignDay,    !- Field 47
    Until: 24:00,            !- Field 48
    0;                       !- Field 49

Schedule:Compact,
    Office spaces_Plug loads,!- Name
    Fraction,                !- Schedule Type Limits Name
    Through: 31 Dec,         !- Field 1
    For: Weekdays,           !- Field 2
    Until: 06:00,            !- Field 3
    .2,                      !- Field 4
    Until: 7:00,             !- Field 5
    .3,                      !- Field 6
    Until: 8:00,             !- Field 7
    .8,                      !- Field 8
    Until: 17:00,            !- Field 9
    .9,                      !- Field 10
    Until: 18:00,            !- Field 11
    .5,                      !- Field 12
    Until: 20:00,            !- Field 13
    .3,                      !- Field 14
    Until: 24:00,            !- Field 15
    .2,                      !- Field 16
    For: Sunday Holidays,    !- Field 17
    Until: 24:00,            !- Field 18
    .2,                      !- Field 19
    For: Saturday,           !- Field 20
    Until: 24:00,            !- Field 21
    .2,                      !- Field 22
    For: CustomDay1 CustomDay2,  !- Field 23
    Until: 24:00,            !- Field 24
    .3,                      !- Field 25
    For: SummerDesignDay,    !- Field 26
    Until: 24:00,            !- Field 27
    1,                       !- Field 28
    For: WinterDesignDay,    !- Field 29
    Until: 24:00,            !- Field 30
    0;                       !- Field 31

Schedule:Compact,
    Office spaces_Lighting,  !- Name
    Fraction,                !- Schedule Type Limits Name
    Through: 31 Dec,         !- Field 1
    For: Weekdays,           !- Field 2
    Until: 06:00,            !- Field 3
    0.05,                    !- Field 4
    Until: 07:00,            !- Field 5
    .3,                      !- Field 6
    Until: 08:00,            !- Field 7
    .8,                      !- Field 8
    Until: 16:00,            !- Field 9
    0.9,                     !- Field 10
    Until: 17:00,            !- Field 11
    .8,                      !- Field 12
    Until: 18:00,            !- Field 13
    0.5,                     !- Field 14
    Until: 20:00,            !- Field 15
    0.3,                     !- Field 16
    Until: 22:00,            !- Field 17
    0.1,                     !- Field 18
    Until: 24:00,            !- Field 19
    .05,                     !- Field 20
    For: Sunday Holidays,    !- Field 21
    Until: 24:00,            !- Field 22
    .05,                     !- Field 23
    For: CustomDay1 CustomDay2,  !- Field 24
    Until: 24:00,            !- Field 25
    .05,                     !- Field 26
    For: Saturday,           !- Field 27
    Until: 05:00,            !- Field 28
    .05,                     !- Field 29
    Until: 07:00,            !- Field 30
    .05,                     !- Field 31
    Until: 08:00,            !- Field 32
    .05,                     !- Field 33
    Until: 14:00,            !- Field 34
    .05,                     !- Field 35
    Until: 17:00,            !- Field 36
    .05,                     !- Field 37
    Until: 24:00,            !- Field 38
    .05,                     !- Field 39
    For: SummerDesignDay,    !- Field 40
    Until: 24:00,            !- Field 41
    1,                       !- Field 42
    For: WinterDesignDay,    !- Field 43
    Until: 24:00,            !- Field 44
    0;                       !- Field 45


!-   ===========  ALL OBJECTS IN CLASS: SCHEDULE:CONSTANT ===========

Schedule:Constant,
    shadingSCH1,             !- Name
    on/off,                  !- Schedule Type Limits Name
    0;                       !- Hourly Value

Schedule:Constant,
    lightactuatorSCH,        !- Name
    on/off,                  !- Schedule Type Limits Name
    0;                       !- Hourly Value

Schedule:Constant,
    activityleveloffice,     !- Name
    any number,              !- Schedule Type Limits Name
    130;                     !- Hourly Value

Schedule:Constant,
    Always On Discrete,      !- Name
    on/off,                  !- Schedule Type Limits Name
    1;                       !- Hourly Value

Schedule:Constant,
    Always Off Discrete,     !- Name
    on/off,                  !- Schedule Type Limits Name
    0;                       !- Hourly Value

Schedule:Constant,
    Always On Continuous,    !- Name
    any number,              !- Schedule Type Limits Name
    1;                       !- Hourly Value

Schedule:Constant,
    OCCactuatorSCH,          !- Name
    on/off,                  !- Schedule Type Limits Name
    0;                       !- Hourly Value

Schedule:Constant,
    H_SPSCH,                 !- Name
    any number,              !- Schedule Type Limits Name
    1;                       !- Hourly Value

Schedule:Constant,
    C_SPSCH,                 !- Name
    any number,              !- Schedule Type Limits Name
    1;                       !- Hourly Value


!-   ===========  ALL OBJECTS IN CLASS: MATERIAL ===========

Material,
    000_M11 100mm lightweight concrete,  !- Name
    MediumRough,             !- Roughness
    0.1016,                  !- Thickness {m}
    0.53,                    !- Conductivity {W/m-K}
    1280,                    !- Density {kg/m3}
    840,                     !- Specific Heat {J/kg-K}
    0.9,                     !- Thermal Absorptance
    0.7,                     !- Solar Absorptance
    0.8;                     !- Visible Absorptance

Material,
    Roof Membrane,           !- Name
    VeryRough,               !- Roughness
    0.0095,                  !- Thickness {m}
    0.16,                    !- Conductivity {W/m-K}
    1121.29,                 !- Density {kg/m3}
    1460,                    !- Specific Heat {J/kg-K}
    0.9,                     !- Thermal Absorptance
    0.7,                     !- Solar Absorptance
    0.7;                     !- Visible Absorptance

Material,
    000_G01a 19mm gypsum board,  !- Name
    MediumSmooth,            !- Roughness
    0.019,                   !- Thickness {m}
    0.16,                    !- Conductivity {W/m-K}
    800,                     !- Density {kg/m3}
    1090,                    !- Specific Heat {J/kg-K}
    0.9,                     !- Thermal Absorptance
    0.7,                     !- Solar Absorptance
    0.5;                     !- Visible Absorptance

Material,
    MAT-CC05 4 HW CONCRETE,  !- Name
    Rough,                   !- Roughness
    0.1016,                  !- Thickness {m}
    1.311,                   !- Conductivity {W/m-K}
    2240,                    !- Density {kg/m3}
    836.8,                   !- Specific Heat {J/kg-K}
    0.9,                     !- Thermal Absorptance
    0.7,                     !- Solar Absorptance
    0.7;                     !- Visible Absorptance

Material,
    000_F08 Metal surface,   !- Name
    Smooth,                  !- Roughness
    0.0008,                  !- Thickness {m}
    45.28,                   !- Conductivity {W/m-K}